Circuit: * C:\Users\acham\Documents\UoM\Sem 3\EN2091_Laboratory Practice and Projects\Lab Project\Simulation\Power_Supply.asc

Direct Newton iteration failed to find .op point.  (Use ".option noopiter" to skip.)
Starting Gmin stepping
Gmin = 10
Gmin = 1.07374
Gmin = 0.115292
Gmin = 0.0123794
Gmin = 0.00132923
Gmin = 0.000142725
Gmin = 1.5325e-005
Gmin = 1.6455e-006
Gmin = 1.76685e-007
vernier = 0.5
vernier = 0.25
Gmin = 1.15985e-007
vernier = 0.333333
vernier = 0.444444
Gmin = 4.7076e-008
vernier = 0.592592
vernier = 0.790123
Gmin = 1.16071e-008
vernier = 1
Gmin = 1.47951e-009
Gmin = 1.58861e-010
Gmin = 1.70576e-011
Gmin = 1.83154e-012
Gmin = 1.9666e-013
Gmin = 0
Gmin stepping succeeded in finding the operating point.


Date: Fri Jan 06 08:10:37 2023
Total elapsed time: 0.134 seconds.

tnom = 27
temp = 27
method = modified trap
totiter = 2727
traniter = 2082
tranpoints = 1042
accept = 1042
rejected = 0
matrix size = 7
fillins = 2
solver = Normal
Matrix Compiler1: 460 bytes object code size  0.1/0.1/[0.1]
Matrix Compiler2:      50 opcodes  0.1/[0.1]/0.1

